/*--------------------------------*- C++ -*----------------------------------*\
| =========                 |                                                 |
| \\      /  F ield         | OpenFOAM: The Open Source CFD Toolbox           |
|  \\    /   O peration     | Version:  v2012                                 |
|   \\  /    A nd           | Website:  www.openfoam.com                      |
|    \\/     M anipulation  |                                                 |
\*---------------------------------------------------------------------------*/
FoamFile
{
    version     2.0;
    format      ascii;
    class       dictionary;
    object      surfaceFeaturesDict;
}
// * * * * * * * * * * * * * * * * * * * * * * * * * * * * * * * * * * * * * //

//superficies
//{
//	surfaces	(ami.stl door.stl fan.stl outrlet.stl room.stl desk.stl);
//}

AMI.stl
{
	surfaces	("AMI.stl");
    extractionMethod    extractFromSurface;
    includedAngle       150;
}
door.stl
{
	surfaces	("door.stl");
    extractionMethod    extractFromSurface;
    includedAngle       150;
}
fan.stl
{
	surfaces	("fan.stl");
    extractionMethod    extractFromSurface;
    includedAngle       150;
}
outlet.stl
{
	surfaces	("outlet.stl");
    extractionMethod    extractFromSurface;
    includedAngle       150;
}
room.stl
{
	surfaces	("room.stl");
    extractionMethod    extractFromSurface;
    includedAngle       150;
}
desk.stl
{
	surfaces	("desk.stl");
    extractionMethod    extractFromSurface;
    includedAngle       150;
}

// ************************************************************************* //
